<?xml version="1.0" encoding="UTF-8"?>
<routes>
	
    <vType id="CarA" length="5" maxSpeed="22"/>
    	<flow id="type1" color="1,1,0"  begin="0" end= "7200" vehsPerHour="250" type="CarA">
    		<route edges="E4 -E0 -E1"/>
    	</flow>
		<flow id="type2" color="1,0,0"  begin="0" end= "7200" vehsPerHour="250" type="CarA">
    		<route edges="E2 -E3"/>
    	</flow>
		<!-- <flow id="type2" color="1,1,0"  begin="0" end= "7200" vehsPerHour="250" type="CarA">
    		<route edges="E4 -E5"/>
    	</flow> -->
</routes>
