<?xml version="1.0" encoding="UTF-8"?>

<!-- generated on 2023-11-05 21:52:37 by Eclipse SUMO netedit Version 1.18.0
<configuration xmlns:xsi="http://www.w3.org/2001/XMLSchema-instance" xsi:noNamespaceSchemaLocation="http://sumo.dlr.de/xsd/neteditConfiguration.xsd">

    <input>
        <sumo-net-file value="D:\traffic\osmdata\crossing\crossing1.net.xml"/>
    </input>

    <output>
        <output-file value="D:\traffic\osmdata\crossing\crossing1.net.xml"/>
    </output>

    <processing>
        <geometry.min-radius.fix.railways value="false"/>
        <geometry.max-grade.fix value="false"/>
        <offset.disable-normalization value="true"/>
        <lefthand value="0"/>
    </processing>

    <junctions>
        <no-turnarounds value="true"/>
        <junctions.corner-detail value="5"/>
        <junctions.limit-turn-speed value="5.50"/>
        <rectangular-lane-cut value="0"/>
    </junctions>

    <pedestrian>
        <walkingareas value="0"/>
    </pedestrian>

</configuration>
-->

<net version="1.16" junctionCornerDetail="5" limitTurnSpeed="5.50" xmlns:xsi="http://www.w3.org/2001/XMLSchema-instance" xsi:noNamespaceSchemaLocation="http://sumo.dlr.de/xsd/net_file.xsd">

    <location netOffset="0.00,0.00" convBoundary="-100.00,0.00,300.00,300.00" origBoundary="-10000000000.00,-10000000000.00,10000000000.00,10000000000.00" projParameter="!"/>

    <edge id=":J0_0" function="internal">
        <lane id=":J0_0_0" index="0" speed="6.51" length="9.03" shape="-8.00,113.60 -8.35,111.15 -9.40,109.40 -11.15,108.35 -13.60,108.00"/>
    </edge>
    <edge id=":J0_1" function="internal">
        <lane id=":J0_1_0" index="0" speed="13.89" length="27.20" shape="-8.00,113.60 -8.00,86.40"/>
        <lane id=":J0_1_1" index="1" speed="13.89" length="27.20" shape="-4.80,113.60 -4.80,86.40"/>
        <lane id=":J0_1_2" index="2" speed="13.89" length="27.20" shape="-1.60,113.60 -1.60,86.40"/>
    </edge>
    <edge id=":J0_4" function="internal">
        <lane id=":J0_4_0" index="0" speed="10.36" length="24.51" shape="-1.60,113.60 -0.65,106.95 2.20,102.20 6.95,99.35 13.60,98.40"/>
    </edge>
    <edge id=":J0_5" function="internal">
        <lane id=":J0_5_0" index="0" speed="6.51" length="9.03" shape="13.60,108.00 11.15,108.35 9.40,109.40 8.35,111.15 8.00,113.60"/>
    </edge>
    <edge id=":J0_6" function="internal">
        <lane id=":J0_6_0" index="0" speed="13.89" length="27.20" shape="13.60,108.00 -13.60,108.00"/>
        <lane id=":J0_6_1" index="1" speed="13.89" length="27.20" shape="13.60,104.80 -13.60,104.80"/>
        <lane id=":J0_6_2" index="2" speed="13.89" length="27.20" shape="13.60,101.60 -13.60,101.60"/>
    </edge>
    <edge id=":J0_9" function="internal">
        <lane id=":J0_9_0" index="0" speed="10.36" length="24.51" shape="13.60,101.60 6.95,100.65 2.20,97.80 -0.65,93.05 -1.60,86.40"/>
    </edge>
    <edge id=":J0_10" function="internal">
        <lane id=":J0_10_0" index="0" speed="6.51" length="9.03" shape="8.00,86.40 8.35,88.85 9.40,90.60 11.15,91.65 13.60,92.00"/>
    </edge>
    <edge id=":J0_11" function="internal">
        <lane id=":J0_11_0" index="0" speed="13.89" length="27.20" shape="8.00,86.40 8.00,113.60"/>
        <lane id=":J0_11_1" index="1" speed="13.89" length="27.20" shape="4.80,86.40 4.80,113.60"/>
        <lane id=":J0_11_2" index="2" speed="13.89" length="27.20" shape="1.60,86.40 1.60,113.60"/>
    </edge>
    <edge id=":J0_14" function="internal">
        <lane id=":J0_14_0" index="0" speed="10.36" length="24.51" shape="1.60,86.40 0.65,93.05 -2.20,97.80 -6.95,100.65 -13.60,101.60"/>
    </edge>
    <edge id=":J0_15" function="internal">
        <lane id=":J0_15_0" index="0" speed="6.51" length="9.03" shape="-13.60,92.00 -11.15,91.65 -9.40,90.60 -8.35,88.85 -8.00,86.40"/>
    </edge>
    <edge id=":J0_16" function="internal">
        <lane id=":J0_16_0" index="0" speed="13.89" length="27.20" shape="-13.60,92.00 13.60,92.00"/>
        <lane id=":J0_16_1" index="1" speed="13.89" length="27.20" shape="-13.60,95.20 13.60,95.20"/>
        <lane id=":J0_16_2" index="2" speed="13.89" length="27.20" shape="-13.60,98.40 13.60,98.40"/>
    </edge>
    <edge id=":J0_19" function="internal">
        <lane id=":J0_19_0" index="0" speed="10.36" length="24.51" shape="-13.60,98.40 -6.95,99.35 -2.20,102.20 0.65,106.95 1.60,113.60"/>
    </edge>
    <edge id=":J1_0" function="internal">
        <lane id=":J1_0_0" index="0" speed="6.51" length="9.03" shape="-8.00,213.60 -8.35,211.15 -9.40,209.40 -11.15,208.35 -13.60,208.00"/>
    </edge>
    <edge id=":J1_1" function="internal">
        <lane id=":J1_1_0" index="0" speed="13.89" length="27.20" shape="-8.00,213.60 -8.00,186.40"/>
        <lane id=":J1_1_1" index="1" speed="13.89" length="27.20" shape="-4.80,213.60 -4.80,186.40"/>
        <lane id=":J1_1_2" index="2" speed="13.89" length="27.20" shape="-1.60,213.60 -1.60,186.40"/>
    </edge>
    <edge id=":J1_4" function="internal">
        <lane id=":J1_4_0" index="0" speed="10.36" length="24.51" shape="-1.60,213.60 -0.65,206.95 2.20,202.20 6.95,199.35 13.60,198.40"/>
    </edge>
    <edge id=":J1_5" function="internal">
        <lane id=":J1_5_0" index="0" speed="6.51" length="9.03" shape="13.60,208.00 11.15,208.35 9.40,209.40 8.35,211.15 8.00,213.60"/>
    </edge>
    <edge id=":J1_6" function="internal">
        <lane id=":J1_6_0" index="0" speed="13.89" length="27.20" shape="13.60,208.00 -13.60,208.00"/>
        <lane id=":J1_6_1" index="1" speed="13.89" length="27.20" shape="13.60,204.80 -13.60,204.80"/>
        <lane id=":J1_6_2" index="2" speed="13.89" length="27.20" shape="13.60,201.60 -13.60,201.60"/>
    </edge>
    <edge id=":J1_9" function="internal">
        <lane id=":J1_9_0" index="0" speed="10.36" length="24.51" shape="13.60,201.60 6.95,200.65 2.20,197.80 -0.65,193.05 -1.60,186.40"/>
    </edge>
    <edge id=":J1_10" function="internal">
        <lane id=":J1_10_0" index="0" speed="6.51" length="9.03" shape="8.00,186.40 8.35,188.85 9.40,190.60 11.15,191.65 13.60,192.00"/>
    </edge>
    <edge id=":J1_11" function="internal">
        <lane id=":J1_11_0" index="0" speed="13.89" length="27.20" shape="8.00,186.40 8.00,213.60"/>
        <lane id=":J1_11_1" index="1" speed="13.89" length="27.20" shape="4.80,186.40 4.80,213.60"/>
        <lane id=":J1_11_2" index="2" speed="13.89" length="27.20" shape="1.60,186.40 1.60,213.60"/>
    </edge>
    <edge id=":J1_14" function="internal">
        <lane id=":J1_14_0" index="0" speed="10.36" length="24.51" shape="1.60,186.40 0.65,193.05 -2.20,197.80 -6.95,200.65 -13.60,201.60"/>
    </edge>
    <edge id=":J1_15" function="internal">
        <lane id=":J1_15_0" index="0" speed="6.51" length="9.03" shape="-13.60,192.00 -11.15,191.65 -9.40,190.60 -8.35,188.85 -8.00,186.40"/>
    </edge>
    <edge id=":J1_16" function="internal">
        <lane id=":J1_16_0" index="0" speed="13.89" length="27.20" shape="-13.60,192.00 13.60,192.00"/>
        <lane id=":J1_16_1" index="1" speed="13.89" length="27.20" shape="-13.60,195.20 13.60,195.20"/>
        <lane id=":J1_16_2" index="2" speed="13.89" length="27.20" shape="-13.60,198.40 13.60,198.40"/>
    </edge>
    <edge id=":J1_19" function="internal">
        <lane id=":J1_19_0" index="0" speed="10.36" length="24.51" shape="-13.60,198.40 -6.95,199.35 -2.20,202.20 0.65,206.95 1.60,213.60"/>
    </edge>
    <edge id=":J11_0" function="internal">
        <lane id=":J11_0_0" index="0" speed="6.51" length="9.03" shape="192.00,213.60 191.65,211.15 190.60,209.40 188.85,208.35 186.40,208.00"/>
    </edge>
    <edge id=":J11_1" function="internal">
        <lane id=":J11_1_0" index="0" speed="13.89" length="27.20" shape="192.00,213.60 192.00,186.40"/>
        <lane id=":J11_1_1" index="1" speed="13.89" length="27.20" shape="195.20,213.60 195.20,186.40"/>
        <lane id=":J11_1_2" index="2" speed="13.89" length="27.20" shape="198.40,213.60 198.40,186.40"/>
    </edge>
    <edge id=":J11_4" function="internal">
        <lane id=":J11_4_0" index="0" speed="10.36" length="5.01" shape="198.40,213.60 199.11,208.64"/>
    </edge>
    <edge id=":J11_20" function="internal">
        <lane id=":J11_20_0" index="0" speed="10.36" length="19.50" shape="199.11,208.64 199.35,206.95 202.20,202.20 206.95,199.35 213.60,198.40"/>
    </edge>
    <edge id=":J11_5" function="internal">
        <lane id=":J11_5_0" index="0" speed="6.51" length="9.03" shape="213.60,208.00 211.15,208.35 209.40,209.40 208.35,211.15 208.00,213.60"/>
    </edge>
    <edge id=":J11_6" function="internal">
        <lane id=":J11_6_0" index="0" speed="13.89" length="27.20" shape="213.60,208.00 186.40,208.00"/>
        <lane id=":J11_6_1" index="1" speed="13.89" length="27.20" shape="213.60,204.80 186.40,204.80"/>
        <lane id=":J11_6_2" index="2" speed="13.89" length="27.20" shape="213.60,201.60 186.40,201.60"/>
    </edge>
    <edge id=":J11_9" function="internal">
        <lane id=":J11_9_0" index="0" speed="10.36" length="5.01" shape="213.60,201.60 208.64,200.89"/>
    </edge>
    <edge id=":J11_21" function="internal">
        <lane id=":J11_21_0" index="0" speed="10.36" length="19.50" shape="208.64,200.89 206.95,200.65 202.20,197.80 199.35,193.05 198.40,186.40"/>
    </edge>
    <edge id=":J11_10" function="internal">
        <lane id=":J11_10_0" index="0" speed="6.51" length="9.03" shape="208.00,186.40 208.35,188.85 209.40,190.60 211.15,191.65 213.60,192.00"/>
    </edge>
    <edge id=":J11_11" function="internal">
        <lane id=":J11_11_0" index="0" speed="13.89" length="27.20" shape="208.00,186.40 208.00,213.60"/>
        <lane id=":J11_11_1" index="1" speed="13.89" length="27.20" shape="204.80,186.40 204.80,213.60"/>
        <lane id=":J11_11_2" index="2" speed="13.89" length="27.20" shape="201.60,186.40 201.60,213.60"/>
    </edge>
    <edge id=":J11_14" function="internal">
        <lane id=":J11_14_0" index="0" speed="10.36" length="5.01" shape="201.60,186.40 200.89,191.36"/>
    </edge>
    <edge id=":J11_22" function="internal">
        <lane id=":J11_22_0" index="0" speed="10.36" length="19.50" shape="200.89,191.36 200.65,193.05 197.80,197.80 193.05,200.65 186.40,201.60"/>
    </edge>
    <edge id=":J11_15" function="internal">
        <lane id=":J11_15_0" index="0" speed="6.51" length="9.03" shape="186.40,192.00 188.85,191.65 190.60,190.60 191.65,188.85 192.00,186.40"/>
    </edge>
    <edge id=":J11_16" function="internal">
        <lane id=":J11_16_0" index="0" speed="13.89" length="27.20" shape="186.40,192.00 213.60,192.00"/>
        <lane id=":J11_16_1" index="1" speed="13.89" length="27.20" shape="186.40,195.20 213.60,195.20"/>
        <lane id=":J11_16_2" index="2" speed="13.89" length="27.20" shape="186.40,198.40 213.60,198.40"/>
    </edge>
    <edge id=":J11_19" function="internal">
        <lane id=":J11_19_0" index="0" speed="10.36" length="5.01" shape="186.40,198.40 191.36,199.11"/>
    </edge>
    <edge id=":J11_23" function="internal">
        <lane id=":J11_23_0" index="0" speed="10.36" length="19.50" shape="191.36,199.11 193.05,199.35 197.80,202.20 200.65,206.95 201.60,213.60"/>
    </edge>
    <edge id=":J7_0" function="internal">
        <lane id=":J7_0_0" index="0" speed="13.89" length="0.10" shape="100.00,208.00 100.00,208.00"/>
        <lane id=":J7_0_1" index="1" speed="13.89" length="0.10" shape="100.00,204.80 100.00,204.80"/>
        <lane id=":J7_0_2" index="2" speed="13.89" length="0.10" shape="100.00,201.60 100.00,201.60"/>
    </edge>
    <edge id=":J7_3" function="internal">
        <lane id=":J7_3_0" index="0" speed="13.89" length="0.10" shape="100.00,192.00 100.00,192.00"/>
        <lane id=":J7_3_1" index="1" speed="13.89" length="0.10" shape="100.00,195.20 100.00,195.20"/>
        <lane id=":J7_3_2" index="2" speed="13.89" length="0.10" shape="100.00,198.40 100.00,198.40"/>
    </edge>

    <edge id="-E0" from="J1" to="J0" priority="-1">
        <lane id="-E0_0" index="0" speed="13.89" length="72.80" shape="-8.00,186.40 -8.00,113.60"/>
        <lane id="-E0_1" index="1" speed="13.89" length="72.80" shape="-4.80,186.40 -4.80,113.60"/>
        <lane id="-E0_2" index="2" speed="13.89" length="72.80" shape="-1.60,186.40 -1.60,113.60"/>
    </edge>
    <edge id="-E1" from="J0" to="J2" priority="-1">
        <lane id="-E1_0" index="0" speed="13.89" length="86.40" shape="-13.60,108.00 -100.00,108.00"/>
        <lane id="-E1_1" index="1" speed="13.89" length="86.40" shape="-13.60,104.80 -100.00,104.80"/>
        <lane id="-E1_2" index="2" speed="13.89" length="86.40" shape="-13.60,101.60 -100.00,101.60"/>
    </edge>
    <edge id="-E10" from="J11" to="J7" priority="-1">
        <lane id="-E10_0" index="0" speed="13.89" length="86.40" shape="186.40,208.00 100.00,208.00"/>
        <lane id="-E10_1" index="1" speed="13.89" length="86.40" shape="186.40,204.80 100.00,204.80"/>
        <lane id="-E10_2" index="2" speed="13.89" length="86.40" shape="186.40,201.60 100.00,201.60"/>
    </edge>
    <edge id="-E11" from="J11" to="J12" priority="-1">
        <lane id="-E11_0" index="0" speed="13.89" length="86.40" shape="208.00,213.60 208.00,300.00"/>
        <lane id="-E11_1" index="1" speed="13.89" length="86.40" shape="204.80,213.60 204.80,300.00"/>
        <lane id="-E11_2" index="2" speed="13.89" length="86.40" shape="201.60,213.60 201.60,300.00"/>
    </edge>
    <edge id="-E12" from="J11" to="J13" priority="-1">
        <lane id="-E12_0" index="0" speed="13.89" length="86.40" shape="192.00,186.40 192.00,100.00"/>
        <lane id="-E12_1" index="1" speed="13.89" length="86.40" shape="195.20,186.40 195.20,100.00"/>
        <lane id="-E12_2" index="2" speed="13.89" length="86.40" shape="198.40,186.40 198.40,100.00"/>
    </edge>
    <edge id="-E13" from="J11" to="J14" priority="-1">
        <lane id="-E13_0" index="0" speed="13.89" length="86.40" shape="213.60,192.00 300.00,192.00"/>
        <lane id="-E13_1" index="1" speed="13.89" length="86.40" shape="213.60,195.20 300.00,195.20"/>
        <lane id="-E13_2" index="2" speed="13.89" length="86.40" shape="213.60,198.40 300.00,198.40"/>
    </edge>
    <edge id="-E2" from="J0" to="J3" priority="-1">
        <lane id="-E2_0" index="0" speed="13.89" length="86.40" shape="-8.00,86.40 -8.00,0.00"/>
        <lane id="-E2_1" index="1" speed="13.89" length="86.40" shape="-4.80,86.40 -4.80,0.00"/>
        <lane id="-E2_2" index="2" speed="13.89" length="86.40" shape="-1.60,86.40 -1.60,0.00"/>
    </edge>
    <edge id="-E3" from="J0" to="J4" priority="-1">
        <lane id="-E3_0" index="0" speed="13.89" length="86.40" shape="13.60,92.00 100.00,92.00"/>
        <lane id="-E3_1" index="1" speed="13.89" length="86.40" shape="13.60,95.20 100.00,95.20"/>
        <lane id="-E3_2" index="2" speed="13.89" length="86.40" shape="13.60,98.40 100.00,98.40"/>
    </edge>
    <edge id="-E4" from="J1" to="J5" priority="-1">
        <lane id="-E4_0" index="0" speed="13.89" length="86.40" shape="8.00,213.60 8.00,300.00"/>
        <lane id="-E4_1" index="1" speed="13.89" length="86.40" shape="4.80,213.60 4.80,300.00"/>
        <lane id="-E4_2" index="2" speed="13.89" length="86.40" shape="1.60,213.60 1.60,300.00"/>
    </edge>
    <edge id="-E5" from="J1" to="J6" priority="-1">
        <lane id="-E5_0" index="0" speed="13.89" length="86.40" shape="-13.60,208.00 -100.00,208.00"/>
        <lane id="-E5_1" index="1" speed="13.89" length="86.40" shape="-13.60,204.80 -100.00,204.80"/>
        <lane id="-E5_2" index="2" speed="13.89" length="86.40" shape="-13.60,201.60 -100.00,201.60"/>
    </edge>
    <edge id="-E6" from="J1" to="J7" priority="-1">
        <lane id="-E6_0" index="0" speed="13.89" length="86.40" shape="13.60,192.00 100.00,192.00"/>
        <lane id="-E6_1" index="1" speed="13.89" length="86.40" shape="13.60,195.20 100.00,195.20"/>
        <lane id="-E6_2" index="2" speed="13.89" length="86.40" shape="13.60,198.40 100.00,198.40"/>
    </edge>
    <edge id="E0" from="J0" to="J1" priority="-1">
        <lane id="E0_0" index="0" speed="13.89" length="72.80" shape="8.00,113.60 8.00,186.40"/>
        <lane id="E0_1" index="1" speed="13.89" length="72.80" shape="4.80,113.60 4.80,186.40"/>
        <lane id="E0_2" index="2" speed="13.89" length="72.80" shape="1.60,113.60 1.60,186.40"/>
    </edge>
    <edge id="E1" from="J2" to="J0" priority="-1">
        <lane id="E1_0" index="0" speed="13.89" length="86.40" shape="-100.00,92.00 -13.60,92.00"/>
        <lane id="E1_1" index="1" speed="13.89" length="86.40" shape="-100.00,95.20 -13.60,95.20"/>
        <lane id="E1_2" index="2" speed="13.89" length="86.40" shape="-100.00,98.40 -13.60,98.40"/>
    </edge>
    <edge id="E10" from="J7" to="J11" priority="-1">
        <lane id="E10_0" index="0" speed="13.89" length="86.40" shape="100.00,192.00 186.40,192.00"/>
        <lane id="E10_1" index="1" speed="13.89" length="86.40" shape="100.00,195.20 186.40,195.20"/>
        <lane id="E10_2" index="2" speed="13.89" length="86.40" shape="100.00,198.40 186.40,198.40"/>
    </edge>
    <edge id="E11" from="J12" to="J11" priority="-1">
        <lane id="E11_0" index="0" speed="13.89" length="86.40" shape="192.00,300.00 192.00,213.60"/>
        <lane id="E11_1" index="1" speed="13.89" length="86.40" shape="195.20,300.00 195.20,213.60"/>
        <lane id="E11_2" index="2" speed="13.89" length="86.40" shape="198.40,300.00 198.40,213.60"/>
    </edge>
    <edge id="E12" from="J13" to="J11" priority="-1">
        <lane id="E12_0" index="0" speed="13.89" length="86.40" shape="208.00,100.00 208.00,186.40"/>
        <lane id="E12_1" index="1" speed="13.89" length="86.40" shape="204.80,100.00 204.80,186.40"/>
        <lane id="E12_2" index="2" speed="13.89" length="86.40" shape="201.60,100.00 201.60,186.40"/>
    </edge>
    <edge id="E13" from="J14" to="J11" priority="-1">
        <lane id="E13_0" index="0" speed="13.89" length="86.40" shape="300.00,208.00 213.60,208.00"/>
        <lane id="E13_1" index="1" speed="13.89" length="86.40" shape="300.00,204.80 213.60,204.80"/>
        <lane id="E13_2" index="2" speed="13.89" length="86.40" shape="300.00,201.60 213.60,201.60"/>
    </edge>
    <edge id="E2" from="J3" to="J0" priority="-1">
        <lane id="E2_0" index="0" speed="13.89" length="86.40" shape="8.00,0.00 8.00,86.40"/>
        <lane id="E2_1" index="1" speed="13.89" length="86.40" shape="4.80,0.00 4.80,86.40"/>
        <lane id="E2_2" index="2" speed="13.89" length="86.40" shape="1.60,0.00 1.60,86.40"/>
    </edge>
    <edge id="E3" from="J4" to="J0" priority="-1">
        <lane id="E3_0" index="0" speed="13.89" length="86.40" shape="100.00,108.00 13.60,108.00"/>
        <lane id="E3_1" index="1" speed="13.89" length="86.40" shape="100.00,104.80 13.60,104.80"/>
        <lane id="E3_2" index="2" speed="13.89" length="86.40" shape="100.00,101.60 13.60,101.60"/>
    </edge>
    <edge id="E4" from="J5" to="J1" priority="-1">
        <lane id="E4_0" index="0" speed="13.89" length="86.40" shape="-8.00,300.00 -8.00,213.60"/>
        <lane id="E4_1" index="1" speed="13.89" length="86.40" shape="-4.80,300.00 -4.80,213.60"/>
        <lane id="E4_2" index="2" speed="13.89" length="86.40" shape="-1.60,300.00 -1.60,213.60"/>
    </edge>
    <edge id="E5" from="J6" to="J1" priority="-1">
        <lane id="E5_0" index="0" speed="13.89" length="86.40" shape="-100.00,192.00 -13.60,192.00"/>
        <lane id="E5_1" index="1" speed="13.89" length="86.40" shape="-100.00,195.20 -13.60,195.20"/>
        <lane id="E5_2" index="2" speed="13.89" length="86.40" shape="-100.00,198.40 -13.60,198.40"/>
    </edge>
    <edge id="E6" from="J7" to="J1" priority="-1">
        <lane id="E6_0" index="0" speed="13.89" length="86.40" shape="100.00,208.00 13.60,208.00"/>
        <lane id="E6_1" index="1" speed="13.89" length="86.40" shape="100.00,204.80 13.60,204.80"/>
        <lane id="E6_2" index="2" speed="13.89" length="86.40" shape="100.00,201.60 13.60,201.60"/>
    </edge>

    <tlLogic id="J0" type="static" programID="0" offset="0">
        <phase duration="42" state="GGGGrrrrrrGGGGrrrrrr"/>
        <phase duration="42" state="rrrrGrrrrrrrrrGrrrrr"/>
        <phase duration="42" state="rrrrrGGGGrrrrrrGGGGr"/>
        <phase duration="42" state="rrrrrrrrrGrrrrrrrrrG"/>
    </tlLogic>
    <tlLogic id="J1" type="static" programID="0" offset="0">
        <phase duration="42" state="GGGGrrrrrrGGGGrrrrrr"/>
        <phase duration="42" state="rrrrGrrrrrrrrrGrrrrr"/>
        <phase duration="42" state="rrrrrGGGGrrrrrrGGGGr"/>
        <phase duration="42" state="rrrrrrrrrGrrrrrrrrrG"/>
    </tlLogic>
    <tlLogic id="J11" type="static" programID="0" offset="0">
        <phase duration="42" state="GGGGrrrrrrGGGGrrrrrr"/>
        <phase duration="42" state="rrrrGrrrrrrrrrGrrrrr"/>
        <phase duration="42" state="rrrrrGGGGrrrrrrGGGGr"/>
        <phase duration="42" state="rrrrrrrrrGrrrrrrrrrG"/>
    </tlLogic>
    <tlLogic id="J11" type="static" programID="1" offset="0">
        <phase duration="42" state="GGGGgrrrrrGGGGgrrrrr"/>
        <phase duration="3"  state="yyyyyrrrrryyyyyrrrrr"/>
        <phase duration="42" state="rrrrrGGGGgrrrrrGGGGg"/>
        <phase duration="3"  state="rrrrryyyyyrrrrryyyyy"/>
    </tlLogic>
    <tlLogic id="J11" type="static" programID="2" offset="0">
        <phase duration="42" state="GGGGgrrrrrGGGGgrrrrr"/>
        <phase duration="3"  state="yyyyyrrrrryyyyyrrrrr"/>
        <phase duration="42" state="rrrrrGGGGgrrrrrGGGGg"/>
        <phase duration="3"  state="rrrrryyyyyrrrrryyyyy"/>
    </tlLogic>
    <tlLogic id="J11" type="static" programID="3" offset="0">
        <phase duration="42" state="GGGGgrrrrrGGGGgrrrrr"/>
        <phase duration="3"  state="yyyyyrrrrryyyyyrrrrr"/>
        <phase duration="42" state="rrrrrGGGGgrrrrrGGGGg"/>
        <phase duration="3"  state="rrrrryyyyyrrrrryyyyy"/>
    </tlLogic>

    <junction id="J0" type="traffic_light" x="0.00" y="100.00" incLanes="-E0_0 -E0_1 -E0_2 E3_0 E3_1 E3_2 E2_0 E2_1 E2_2 E1_0 E1_1 E1_2" intLanes=":J0_0_0 :J0_1_0 :J0_1_1 :J0_1_2 :J0_4_0 :J0_5_0 :J0_6_0 :J0_6_1 :J0_6_2 :J0_9_0 :J0_10_0 :J0_11_0 :J0_11_1 :J0_11_2 :J0_14_0 :J0_15_0 :J0_16_0 :J0_16_1 :J0_16_2 :J0_19_0" shape="-9.60,113.60 9.60,113.60 10.04,111.38 10.60,110.60 11.38,110.04 12.38,109.71 13.60,109.60 13.60,90.40 11.38,89.96 10.60,89.40 10.04,88.62 9.71,87.62 9.60,86.40 -9.60,86.40 -10.04,88.62 -10.60,89.40 -11.38,89.96 -12.38,90.29 -13.60,90.40 -13.60,109.60 -11.38,110.04 -10.60,110.60 -10.04,111.38 -9.71,112.38">
        <request index="0"  response="00000000000000000000" foes="00000000000111000000" cont="0"/>
        <request index="1"  response="00000000000000000000" foes="11111100001111000000" cont="0"/>
        <request index="2"  response="00000000000000000000" foes="11111100001111000000" cont="0"/>
        <request index="3"  response="00000000000000000000" foes="11111100001111000000" cont="0"/>
        <request index="4"  response="00000011100000000000" foes="11110011101111000000" cont="0"/>
        <request index="5"  response="00000011100000000000" foes="00000011100000000000" cont="0"/>
        <request index="6"  response="00000111100000011111" foes="10000111100000011111" cont="0"/>
        <request index="7"  response="00000111100000011111" foes="10000111100000011111" cont="0"/>
        <request index="8"  response="00000111100000011111" foes="10000111100000011111" cont="0"/>
        <request index="9"  response="01110111100000011110" foes="01110111100000011110" cont="0"/>
        <request index="10" response="00000000000000000000" foes="01110000000000000000" cont="0"/>
        <request index="11" response="00000000000000000000" foes="11110000001111110000" cont="0"/>
        <request index="12" response="00000000000000000000" foes="11110000001111110000" cont="0"/>
        <request index="13" response="00000000000000000000" foes="11110000001111110000" cont="0"/>
        <request index="14" response="00000000000000001110" foes="11110000001111001110" cont="0"/>
        <request index="15" response="00000000000000001110" foes="00000000000000001110" cont="0"/>
        <request index="16" response="00000111110000011110" foes="00000111111000011110" cont="0"/>
        <request index="17" response="00000111110000011110" foes="00000111111000011110" cont="0"/>
        <request index="18" response="00000111110000011110" foes="00000111111000011110" cont="0"/>
        <request index="19" response="00000111100111011110" foes="00000111100111011110" cont="0"/>
    </junction>
    <junction id="J1" type="traffic_light" x="0.00" y="200.00" incLanes="E4_0 E4_1 E4_2 E6_0 E6_1 E6_2 E0_0 E0_1 E0_2 E5_0 E5_1 E5_2" intLanes=":J1_0_0 :J1_1_0 :J1_1_1 :J1_1_2 :J1_4_0 :J1_5_0 :J1_6_0 :J1_6_1 :J1_6_2 :J1_9_0 :J1_10_0 :J1_11_0 :J1_11_1 :J1_11_2 :J1_14_0 :J1_15_0 :J1_16_0 :J1_16_1 :J1_16_2 :J1_19_0" shape="-9.60,213.60 9.60,213.60 10.04,211.38 10.60,210.60 11.38,210.04 12.38,209.71 13.60,209.60 13.60,190.40 11.38,189.96 10.60,189.40 10.04,188.62 9.71,187.62 9.60,186.40 -9.60,186.40 -10.04,188.62 -10.60,189.40 -11.38,189.96 -12.38,190.29 -13.60,190.40 -13.60,209.60 -11.38,210.04 -10.60,210.60 -10.04,211.38 -9.71,212.38">
        <request index="0"  response="00000000000000000000" foes="00000000000111000000" cont="0"/>
        <request index="1"  response="00000000000000000000" foes="11111100001111000000" cont="0"/>
        <request index="2"  response="00000000000000000000" foes="11111100001111000000" cont="0"/>
        <request index="3"  response="00000000000000000000" foes="11111100001111000000" cont="0"/>
        <request index="4"  response="00000011100000000000" foes="11110011101111000000" cont="0"/>
        <request index="5"  response="00000011100000000000" foes="00000011100000000000" cont="0"/>
        <request index="6"  response="00000111100000011111" foes="10000111100000011111" cont="0"/>
        <request index="7"  response="00000111100000011111" foes="10000111100000011111" cont="0"/>
        <request index="8"  response="00000111100000011111" foes="10000111100000011111" cont="0"/>
        <request index="9"  response="01110111100000011110" foes="01110111100000011110" cont="0"/>
        <request index="10" response="00000000000000000000" foes="01110000000000000000" cont="0"/>
        <request index="11" response="00000000000000000000" foes="11110000001111110000" cont="0"/>
        <request index="12" response="00000000000000000000" foes="11110000001111110000" cont="0"/>
        <request index="13" response="00000000000000000000" foes="11110000001111110000" cont="0"/>
        <request index="14" response="00000000000000001110" foes="11110000001111001110" cont="0"/>
        <request index="15" response="00000000000000001110" foes="00000000000000001110" cont="0"/>
        <request index="16" response="00000111110000011110" foes="00000111111000011110" cont="0"/>
        <request index="17" response="00000111110000011110" foes="00000111111000011110" cont="0"/>
        <request index="18" response="00000111110000011110" foes="00000111111000011110" cont="0"/>
        <request index="19" response="00000111100111011110" foes="00000111100111011110" cont="0"/>
    </junction>
    <junction id="J11" type="traffic_light" x="200.00" y="200.00" incLanes="E11_0 E11_1 E11_2 E13_0 E13_1 E13_2 E12_0 E12_1 E12_2 E10_0 E10_1 E10_2" intLanes=":J11_0_0 :J11_1_0 :J11_1_1 :J11_1_2 :J11_20_0 :J11_5_0 :J11_6_0 :J11_6_1 :J11_6_2 :J11_21_0 :J11_10_0 :J11_11_0 :J11_11_1 :J11_11_2 :J11_22_0 :J11_15_0 :J11_16_0 :J11_16_1 :J11_16_2 :J11_23_0" shape="190.40,213.60 209.60,213.60 210.04,211.38 210.60,210.60 211.38,210.04 212.38,209.71 213.60,209.60 213.60,190.40 211.38,189.96 210.60,189.40 210.04,188.62 209.71,187.62 209.60,186.40 190.40,186.40 189.96,188.62 189.40,189.40 188.62,189.96 187.62,190.29 186.40,190.40 186.40,209.60 188.62,210.04 189.40,210.60 189.96,211.38 190.29,212.38">
        <request index="0"  response="00000000000000000000" foes="00000000000111000000" cont="0"/>
        <request index="1"  response="10000000001000000000" foes="11111100001111000000" cont="0"/>
        <request index="2"  response="10000000001000000000" foes="11111100001111000000" cont="0"/>
        <request index="3"  response="10000000001000000000" foes="11111100001111000000" cont="0"/>
        <request index="4"  response="10000011101000000000" foes="11110011101111000000" cont="1"/>
        <request index="5"  response="00000011100000000000" foes="00000011100000000000" cont="0"/>
        <request index="6"  response="00000111100000011111" foes="10000111100000011111" cont="0"/>
        <request index="7"  response="00000111100000011111" foes="10000111100000011111" cont="0"/>
        <request index="8"  response="00000111100000011111" foes="10000111100000011111" cont="0"/>
        <request index="9"  response="01110111100000011110" foes="01110111100000011110" cont="1"/>
        <request index="10" response="00000000000000000000" foes="01110000000000000000" cont="0"/>
        <request index="11" response="10000000001000000000" foes="11110000001111110000" cont="0"/>
        <request index="12" response="10000000001000000000" foes="11110000001111110000" cont="0"/>
        <request index="13" response="10000000001000000000" foes="11110000001111110000" cont="0"/>
        <request index="14" response="10000000001000001110" foes="11110000001111001110" cont="1"/>
        <request index="15" response="00000000000000001110" foes="00000000000000001110" cont="0"/>
        <request index="16" response="00000111110000011110" foes="00000111111000011110" cont="0"/>
        <request index="17" response="00000111110000011110" foes="00000111111000011110" cont="0"/>
        <request index="18" response="00000111110000011110" foes="00000111111000011110" cont="0"/>
        <request index="19" response="00000111100111011110" foes="00000111100111011110" cont="1"/>
    </junction>
    <junction id="J12" type="dead_end" x="200.00" y="300.00" incLanes="-E11_0 -E11_1 -E11_2" intLanes="" shape="200.00,300.00 209.60,300.00 200.00,300.00"/>