<?xml version="1.0" encoding="UTF-8"?>

<!-- generated on 2023-11-02 15:12:28 by Eclipse SUMO netedit Version 1.18.0
<configuration xmlns:xsi="http://www.w3.org/2001/XMLSchema-instance" xsi:noNamespaceSchemaLocation="http://sumo.dlr.de/xsd/neteditConfiguration.xsd">

    <input>
        <sumocfg-file value="D:\py\transport\xml\1.sumocfg"/>
        <route-files value="D:\py\transport\xml\1.rou.xml"/>
        <sumo-net-file value="D:\py\transport\xml\1.net.xml"/>
    </input>

    <output>
        <output-file value="D:\py\transport\xml\1.net.xml"/>
    </output>

    <processing>
        <geometry.min-radius.fix.railways value="false"/>
        <geometry.max-grade.fix value="false"/>
        <offset.disable-normalization value="true"/>
        <lefthand value="0"/>
    </processing>

    <junctions>
        <no-internal-links value="true"/>
        <no-turnarounds value="true"/>
        <junctions.corner-detail value="5"/>
        <junctions.limit-turn-speed value="5.50"/>
        <rectangular-lane-cut value="0"/>
    </junctions>

    <pedestrian>
        <walkingareas value="0"/>
    </pedestrian>

</configuration>
-->

<net version="1.16" junctionCornerDetail="5" limitTurnSpeed="5.50" xmlns:xsi="http://www.w3.org/2001/XMLSchema-instance" xsi:noNamespaceSchemaLocation="http://sumo.dlr.de/xsd/net_file.xsd">

    <location netOffset="0.00,0.00" convBoundary="-100.00,100.00,100.00,100.00" origBoundary="-10000000000.00,-10000000000.00,10000000000.00,10000000000.00" projParameter="!"/>

    <edge id="E0" from="J0" to="J1" priority="-1">
        <lane id="E0_0" index="0" speed="13.89" length="100.00" shape="-100.00,98.40 0.00,98.40"/>
    </edge>
    <edge id="E1" from="J1" to="J2" priority="-1">
        <lane id="E1_0" index="0" speed="13.89" length="100.00" shape="0.00,98.40 100.00,98.40"/>
    </edge>

    <tlLogic id="J1" type="static" programID="0" offset="0">
        <phase duration="82" state="G"/>
        <phase duration="3"  state="y"/>
        <phase duration="5"  state="r"/>
    </tlLogic>

    <junction id="J0" type="dead_end" x="-100.00" y="100.00" incLanes="" intLanes="" shape="-100.00,100.00 -100.00,96.80"/>
    <junction id="J1" type="traffic_light" x="0.00" y="100.00" incLanes="E0_0" intLanes="" shape="0.00,100.00 0.00,96.80 0.00,100.00">
        <request index="0" response="0" foes="0"/>
    </junction>
    <junction id="J2" type="dead_end" x="100.00" y="100.00" incLanes="E1_0" intLanes="" shape="100.00,96.80 100.00,100.00"/>

    <connection from="E0" to="E1" fromLane="0" toLane="0" tl="J1" linkIndex="0" dir="s" state="O"/>

</net>
