<?xml version="1.0" encoding="UTF-8"?>

<!-- generated on 2023-11-02 15:12:25 by Eclipse SUMO netedit Version 1.18.0
-->

<routes xmlns:xsi="http://www.w3.org/2001/XMLSchema-instance" xsi:noNamespaceSchemaLocation="http://sumo.dlr.de/xsd/routes_file.xsd">
    <!-- Routes -->
    <route id="r_0" edges="E0 E1"/>
    <!-- Vehicles, persons and containers (sorted by depart) -->
    <vehicle id="v_0" depart="0.00" route="r_0"/>
</routes>
